
Circuit: 

Doing analysis at TEMP = 27.000000 and TNOM = 27.000000

Warning: This model supports BSIM4.2.1, 4.3.0 and 4.4.0; you specified a wrong version number.
Warning: (B1 + Weff) may be too small.
Warning: This model supports BSIM4.2.1, 4.3.0 and 4.4.0; you specified a wrong version number.
Warning: (B1 + Weff) may be too small.

Initial Transient Solution
--------------------------

Node                                   Voltage
----                                   -------
out                                   0.699935
in                                           0
vdd                                        0.7
vin#branch                         4.39181e-12
vdd#branch                        -6.99049e-09



No. of Data Rows : 128
Doing analysis at TEMP = 27.000000 and TNOM = 27.000000

Warning: This model supports BSIM4.2.1, 4.3.0 and 4.4.0; you specified a wrong version number.
Warning: (B1 + Weff) may be too small.
Warning: This model supports BSIM4.2.1, 4.3.0 and 4.4.0; you specified a wrong version number.
Warning: (B1 + Weff) may be too small.


No. of Data Rows : 701
                                        
                                        DC transfer characteristic  Tue Dec  9 22:54:13  2014
--------------------------------------------------------------------------------
Index   v-sweep         v(in)           v(out)          
--------------------------------------------------------------------------------
0	0.000000e+00	0.000000e+00	6.999348e-01	
1	1.000000e-03	1.000000e-03	6.999330e-01	
2	2.000000e-03	2.000000e-03	6.999312e-01	
3	3.000000e-03	3.000000e-03	6.999293e-01	
4	4.000000e-03	4.000000e-03	6.999274e-01	
5	5.000000e-03	5.000000e-03	6.999254e-01	
6	6.000000e-03	6.000000e-03	6.999234e-01	
7	7.000000e-03	7.000000e-03	6.999213e-01	
8	8.000000e-03	8.000000e-03	6.999192e-01	
9	9.000000e-03	9.000000e-03	6.999170e-01	
10	1.000000e-02	1.000000e-02	6.999148e-01	
11	1.100000e-02	1.100000e-02	6.999124e-01	
12	1.200000e-02	1.200000e-02	6.999101e-01	
13	1.300000e-02	1.300000e-02	6.999076e-01	
14	1.400000e-02	1.400000e-02	6.999051e-01	
15	1.500000e-02	1.500000e-02	6.999026e-01	
16	1.600000e-02	1.600000e-02	6.998999e-01	
17	1.700000e-02	1.700000e-02	6.998972e-01	
18	1.800000e-02	1.800000e-02	6.998944e-01	
19	1.900000e-02	1.900000e-02	6.998915e-01	
20	2.000000e-02	2.000000e-02	6.998886e-01	
21	2.100000e-02	2.100000e-02	6.998856e-01	
22	2.200000e-02	2.200000e-02	6.998825e-01	
23	2.300000e-02	2.300000e-02	6.998793e-01	
24	2.400000e-02	2.400000e-02	6.998760e-01	
25	2.500000e-02	2.500000e-02	6.998727e-01	
26	2.600000e-02	2.600000e-02	6.998692e-01	
27	2.700000e-02	2.700000e-02	6.998657e-01	
28	2.800000e-02	2.800000e-02	6.998621e-01	
29	2.900000e-02	2.900000e-02	6.998583e-01	
30	3.000000e-02	3.000000e-02	6.998545e-01	
31	3.100000e-02	3.100000e-02	6.998506e-01	
32	3.200000e-02	3.200000e-02	6.998465e-01	
33	3.300000e-02	3.300000e-02	6.998424e-01	
34	3.400000e-02	3.400000e-02	6.998381e-01	
35	3.500000e-02	3.500000e-02	6.998337e-01	
36	3.600000e-02	3.600000e-02	6.998292e-01	
37	3.700000e-02	3.700000e-02	6.998246e-01	
38	3.800000e-02	3.800000e-02	6.998199e-01	
39	3.900000e-02	3.900000e-02	6.998150e-01	
40	4.000000e-02	4.000000e-02	6.998100e-01	
41	4.100000e-02	4.100000e-02	6.998049e-01	
42	4.200000e-02	4.200000e-02	6.997996e-01	
43	4.300000e-02	4.300000e-02	6.997942e-01	
44	4.400000e-02	4.400000e-02	6.997887e-01	
45	4.500000e-02	4.500000e-02	6.997830e-01	
46	4.600000e-02	4.600000e-02	6.997771e-01	
47	4.700000e-02	4.700000e-02	6.997711e-01	
48	4.800000e-02	4.800000e-02	6.997649e-01	
49	4.900000e-02	4.900000e-02	6.997586e-01	
50	5.000000e-02	5.000000e-02	6.997521e-01	
51	5.100000e-02	5.100000e-02	6.997454e-01	
52	5.200000e-02	5.200000e-02	6.997386e-01	
53	5.300000e-02	5.300000e-02	6.997315e-01	
54	5.400000e-02	5.400000e-02	6.997243e-01	

Index   v-sweep         v(in)           v(out)          
--------------------------------------------------------------------------------
55	5.500000e-02	5.500000e-02	6.997169e-01	
56	5.600000e-02	5.600000e-02	6.997093e-01	
57	5.700000e-02	5.700000e-02	6.997015e-01	
58	5.800000e-02	5.800000e-02	6.996934e-01	
59	5.900000e-02	5.900000e-02	6.996852e-01	
60	6.000000e-02	6.000000e-02	6.996767e-01	
61	6.100000e-02	6.100000e-02	6.996680e-01	
62	6.200000e-02	6.200000e-02	6.996591e-01	
63	6.300000e-02	6.300000e-02	6.996500e-01	
64	6.400000e-02	6.400000e-02	6.996406e-01	
65	6.500000e-02	6.500000e-02	6.996309e-01	
66	6.600000e-02	6.600000e-02	6.996210e-01	
67	6.700000e-02	6.700000e-02	6.996109e-01	
68	6.800000e-02	6.800000e-02	6.996004e-01	
69	6.900000e-02	6.900000e-02	6.995897e-01	
70	7.000000e-02	7.000000e-02	6.995787e-01	
71	7.100000e-02	7.100000e-02	6.995674e-01	
72	7.200000e-02	7.200000e-02	6.995558e-01	
73	7.300000e-02	7.300000e-02	6.995439e-01	
74	7.400000e-02	7.400000e-02	6.995317e-01	
75	7.500000e-02	7.500000e-02	6.995192e-01	
76	7.600000e-02	7.600000e-02	6.995063e-01	
77	7.700000e-02	7.700000e-02	6.994932e-01	
78	7.800000e-02	7.800000e-02	6.994796e-01	
79	7.900000e-02	7.900000e-02	6.994657e-01	
80	8.000000e-02	8.000000e-02	6.994514e-01	
81	8.100000e-02	8.100000e-02	6.994368e-01	
82	8.200000e-02	8.200000e-02	6.994217e-01	
83	8.300000e-02	8.300000e-02	6.994063e-01	
84	8.400000e-02	8.400000e-02	6.993905e-01	
85	8.500000e-02	8.500000e-02	6.993742e-01	
86	8.600000e-02	8.600000e-02	6.993576e-01	
87	8.700000e-02	8.700000e-02	6.993404e-01	
88	8.800000e-02	8.800000e-02	6.993229e-01	
89	8.900000e-02	8.900000e-02	6.993048e-01	
90	9.000000e-02	9.000000e-02	6.992863e-01	
91	9.100000e-02	9.100000e-02	6.992674e-01	
92	9.200000e-02	9.200000e-02	6.992479e-01	
93	9.300000e-02	9.300000e-02	6.992279e-01	
94	9.400000e-02	9.400000e-02	6.992074e-01	
95	9.500000e-02	9.500000e-02	6.991863e-01	
96	9.600000e-02	9.600000e-02	6.991647e-01	
97	9.700000e-02	9.700000e-02	6.991425e-01	
98	9.800000e-02	9.800000e-02	6.991198e-01	
99	9.900000e-02	9.900000e-02	6.990965e-01	
100	1.000000e-01	1.000000e-01	6.990725e-01	
101	1.010000e-01	1.010000e-01	6.990479e-01	
102	1.020000e-01	1.020000e-01	6.990227e-01	
103	1.030000e-01	1.030000e-01	6.989969e-01	
104	1.040000e-01	1.040000e-01	6.989703e-01	
105	1.050000e-01	1.050000e-01	6.989431e-01	
106	1.060000e-01	1.060000e-01	6.989152e-01	
107	1.070000e-01	1.070000e-01	6.988865e-01	
108	1.080000e-01	1.080000e-01	6.988571e-01	
109	1.090000e-01	1.090000e-01	6.988269e-01	
110	1.100000e-01	1.100000e-01	6.987960e-01	
111	1.110000e-01	1.110000e-01	6.987642e-01	
112	1.120000e-01	1.120000e-01	6.987316e-01	

Index   v-sweep         v(in)           v(out)          
--------------------------------------------------------------------------------
113	1.130000e-01	1.130000e-01	6.986982e-01	
114	1.140000e-01	1.140000e-01	6.986639e-01	
115	1.150000e-01	1.150000e-01	6.986288e-01	
116	1.160000e-01	1.160000e-01	6.985927e-01	
117	1.170000e-01	1.170000e-01	6.985557e-01	
118	1.180000e-01	1.180000e-01	6.985177e-01	
119	1.190000e-01	1.190000e-01	6.984788e-01	
120	1.200000e-01	1.200000e-01	6.984389e-01	
121	1.210000e-01	1.210000e-01	6.983979e-01	
122	1.220000e-01	1.220000e-01	6.983559e-01	
123	1.230000e-01	1.230000e-01	6.983128e-01	
124	1.240000e-01	1.240000e-01	6.982686e-01	
125	1.250000e-01	1.250000e-01	6.982232e-01	
126	1.260000e-01	1.260000e-01	6.981767e-01	
127	1.270000e-01	1.270000e-01	6.981290e-01	
128	1.280000e-01	1.280000e-01	6.980801e-01	
129	1.290000e-01	1.290000e-01	6.980300e-01	
130	1.300000e-01	1.300000e-01	6.979785e-01	
131	1.310000e-01	1.310000e-01	6.979258e-01	
132	1.320000e-01	1.320000e-01	6.978716e-01	
133	1.330000e-01	1.330000e-01	6.978162e-01	
134	1.340000e-01	1.340000e-01	6.977593e-01	
135	1.350000e-01	1.350000e-01	6.977009e-01	
136	1.360000e-01	1.360000e-01	6.976411e-01	
137	1.370000e-01	1.370000e-01	6.975797e-01	
138	1.380000e-01	1.380000e-01	6.975168e-01	
139	1.390000e-01	1.390000e-01	6.974523e-01	
140	1.400000e-01	1.400000e-01	6.973862e-01	
141	1.410000e-01	1.410000e-01	6.973184e-01	
142	1.420000e-01	1.420000e-01	6.972488e-01	
143	1.430000e-01	1.430000e-01	6.971776e-01	
144	1.440000e-01	1.440000e-01	6.971045e-01	
145	1.450000e-01	1.450000e-01	6.970295e-01	
146	1.460000e-01	1.460000e-01	6.969527e-01	
147	1.470000e-01	1.470000e-01	6.968740e-01	
148	1.480000e-01	1.480000e-01	6.967932e-01	
149	1.490000e-01	1.490000e-01	6.967105e-01	
150	1.500000e-01	1.500000e-01	6.966256e-01	
151	1.510000e-01	1.510000e-01	6.965386e-01	
152	1.520000e-01	1.520000e-01	6.964495e-01	
153	1.530000e-01	1.530000e-01	6.963581e-01	
154	1.540000e-01	1.540000e-01	6.962644e-01	
155	1.550000e-01	1.550000e-01	6.961684e-01	
156	1.560000e-01	1.560000e-01	6.960699e-01	
157	1.570000e-01	1.570000e-01	6.959691e-01	
158	1.580000e-01	1.580000e-01	6.958657e-01	
159	1.590000e-01	1.590000e-01	6.957597e-01	
160	1.600000e-01	1.600000e-01	6.956511e-01	
161	1.610000e-01	1.610000e-01	6.955398e-01	
162	1.620000e-01	1.620000e-01	6.954257e-01	
163	1.630000e-01	1.630000e-01	6.953089e-01	
164	1.640000e-01	1.640000e-01	6.951891e-01	
165	1.650000e-01	1.650000e-01	6.950663e-01	
166	1.660000e-01	1.660000e-01	6.949405e-01	
167	1.670000e-01	1.670000e-01	6.948116e-01	
168	1.680000e-01	1.680000e-01	6.946796e-01	
169	1.690000e-01	1.690000e-01	6.945442e-01	
170	1.700000e-01	1.700000e-01	6.944056e-01	

Index   v-sweep         v(in)           v(out)          
--------------------------------------------------------------------------------
171	1.710000e-01	1.710000e-01	6.942635e-01	
172	1.720000e-01	1.720000e-01	6.941180e-01	
173	1.730000e-01	1.730000e-01	6.939689e-01	
174	1.740000e-01	1.740000e-01	6.938161e-01	
175	1.750000e-01	1.750000e-01	6.936596e-01	
176	1.760000e-01	1.760000e-01	6.934993e-01	
177	1.770000e-01	1.770000e-01	6.933350e-01	
178	1.780000e-01	1.780000e-01	6.931668e-01	
179	1.790000e-01	1.790000e-01	6.929944e-01	
180	1.800000e-01	1.800000e-01	6.928179e-01	
181	1.810000e-01	1.810000e-01	6.926371e-01	
182	1.820000e-01	1.820000e-01	6.924519e-01	
183	1.830000e-01	1.830000e-01	6.922622e-01	
184	1.840000e-01	1.840000e-01	6.920679e-01	
185	1.850000e-01	1.850000e-01	6.918690e-01	
186	1.860000e-01	1.860000e-01	6.916652e-01	
187	1.870000e-01	1.870000e-01	6.914565e-01	
188	1.880000e-01	1.880000e-01	6.912428e-01	
189	1.890000e-01	1.890000e-01	6.910240e-01	
190	1.900000e-01	1.900000e-01	6.907999e-01	
191	1.910000e-01	1.910000e-01	6.905705e-01	
192	1.920000e-01	1.920000e-01	6.903355e-01	
193	1.930000e-01	1.930000e-01	6.900950e-01	
194	1.940000e-01	1.940000e-01	6.898487e-01	
195	1.950000e-01	1.950000e-01	6.895965e-01	
196	1.960000e-01	1.960000e-01	6.893384e-01	
197	1.970000e-01	1.970000e-01	6.890741e-01	
198	1.980000e-01	1.980000e-01	6.888035e-01	
199	1.990000e-01	1.990000e-01	6.885266e-01	
200	2.000000e-01	2.000000e-01	6.882430e-01	
201	2.010000e-01	2.010000e-01	6.879528e-01	
202	2.020000e-01	2.020000e-01	6.876557e-01	
203	2.030000e-01	2.030000e-01	6.873516e-01	
204	2.040000e-01	2.040000e-01	6.870404e-01	
205	2.050000e-01	2.050000e-01	6.867219e-01	
206	2.060000e-01	2.060000e-01	6.863959e-01	
207	2.070000e-01	2.070000e-01	6.860622e-01	
208	2.080000e-01	2.080000e-01	6.857208e-01	
209	2.090000e-01	2.090000e-01	6.853713e-01	
210	2.100000e-01	2.100000e-01	6.850137e-01	
211	2.110000e-01	2.110000e-01	6.846478e-01	
212	2.120000e-01	2.120000e-01	6.842734e-01	
213	2.130000e-01	2.130000e-01	6.838903e-01	
214	2.140000e-01	2.140000e-01	6.834983e-01	
215	2.150000e-01	2.150000e-01	6.830972e-01	
216	2.160000e-01	2.160000e-01	6.826868e-01	
217	2.170000e-01	2.170000e-01	6.822669e-01	
218	2.180000e-01	2.180000e-01	6.818374e-01	
219	2.190000e-01	2.190000e-01	6.813979e-01	
220	2.200000e-01	2.200000e-01	6.809483e-01	
221	2.210000e-01	2.210000e-01	6.804884e-01	
222	2.220000e-01	2.220000e-01	6.800179e-01	
223	2.230000e-01	2.230000e-01	6.795367e-01	
224	2.240000e-01	2.240000e-01	6.790444e-01	
225	2.250000e-01	2.250000e-01	6.785408e-01	
226	2.260000e-01	2.260000e-01	6.780257e-01	
227	2.270000e-01	2.270000e-01	6.774989e-01	
228	2.280000e-01	2.280000e-01	6.769600e-01	

Index   v-sweep         v(in)           v(out)          
--------------------------------------------------------------------------------
229	2.290000e-01	2.290000e-01	6.764088e-01	
230	2.300000e-01	2.300000e-01	6.758451e-01	
231	2.310000e-01	2.310000e-01	6.752686e-01	
232	2.320000e-01	2.320000e-01	6.746789e-01	
233	2.330000e-01	2.330000e-01	6.740758e-01	
234	2.340000e-01	2.340000e-01	6.734591e-01	
235	2.350000e-01	2.350000e-01	6.728283e-01	
236	2.360000e-01	2.360000e-01	6.721833e-01	
237	2.370000e-01	2.370000e-01	6.715236e-01	
238	2.380000e-01	2.380000e-01	6.708489e-01	
239	2.390000e-01	2.390000e-01	6.701590e-01	
240	2.400000e-01	2.400000e-01	6.694534e-01	
241	2.410000e-01	2.410000e-01	6.687319e-01	
242	2.420000e-01	2.420000e-01	6.679940e-01	
243	2.430000e-01	2.430000e-01	6.672394e-01	
244	2.440000e-01	2.440000e-01	6.664677e-01	
245	2.450000e-01	2.450000e-01	6.656785e-01	
246	2.460000e-01	2.460000e-01	6.648715e-01	
247	2.470000e-01	2.470000e-01	6.640461e-01	
248	2.480000e-01	2.480000e-01	6.632021e-01	
249	2.490000e-01	2.490000e-01	6.623388e-01	
250	2.500000e-01	2.500000e-01	6.614560e-01	
251	2.510000e-01	2.510000e-01	6.605531e-01	
252	2.520000e-01	2.520000e-01	6.596297e-01	
253	2.530000e-01	2.530000e-01	6.586853e-01	
254	2.540000e-01	2.540000e-01	6.577193e-01	
255	2.550000e-01	2.550000e-01	6.567313e-01	
256	2.560000e-01	2.560000e-01	6.557207e-01	
257	2.570000e-01	2.570000e-01	6.546871e-01	
258	2.580000e-01	2.580000e-01	6.536297e-01	
259	2.590000e-01	2.590000e-01	6.525481e-01	
260	2.600000e-01	2.600000e-01	6.514416e-01	
261	2.610000e-01	2.610000e-01	6.503098e-01	
262	2.620000e-01	2.620000e-01	6.491518e-01	
263	2.630000e-01	2.630000e-01	6.479671e-01	
264	2.640000e-01	2.640000e-01	6.467550e-01	
265	2.650000e-01	2.650000e-01	6.455149e-01	
266	2.660000e-01	2.660000e-01	6.442461e-01	
267	2.670000e-01	2.670000e-01	6.429479e-01	
268	2.680000e-01	2.680000e-01	6.416195e-01	
269	2.690000e-01	2.690000e-01	6.402602e-01	
270	2.700000e-01	2.700000e-01	6.388694e-01	
271	2.710000e-01	2.710000e-01	6.374462e-01	
272	2.720000e-01	2.720000e-01	6.359900e-01	
273	2.730000e-01	2.730000e-01	6.345001e-01	
274	2.740000e-01	2.740000e-01	6.329756e-01	
275	2.750000e-01	2.750000e-01	6.314158e-01	
276	2.760000e-01	2.760000e-01	6.298202e-01	
277	2.770000e-01	2.770000e-01	6.281880e-01	
278	2.780000e-01	2.780000e-01	6.265186e-01	
279	2.790000e-01	2.790000e-01	6.248114e-01	
280	2.800000e-01	2.800000e-01	6.230660e-01	
281	2.810000e-01	2.810000e-01	6.212817e-01	
282	2.820000e-01	2.820000e-01	6.194583e-01	
283	2.830000e-01	2.830000e-01	6.175955e-01	
284	2.840000e-01	2.840000e-01	6.156930e-01	
285	2.850000e-01	2.850000e-01	6.137509e-01	
286	2.860000e-01	2.860000e-01	6.117692e-01	

Index   v-sweep         v(in)           v(out)          
--------------------------------------------------------------------------------
287	2.870000e-01	2.870000e-01	6.097480e-01	
288	2.880000e-01	2.880000e-01	6.076877e-01	
289	2.890000e-01	2.890000e-01	6.055889e-01	
290	2.900000e-01	2.900000e-01	6.034520e-01	
291	2.910000e-01	2.910000e-01	6.012779e-01	
292	2.920000e-01	2.920000e-01	5.990675e-01	
293	2.930000e-01	2.930000e-01	5.968218e-01	
294	2.940000e-01	2.940000e-01	5.945420e-01	
295	2.950000e-01	2.950000e-01	5.922293e-01	
296	2.960000e-01	2.960000e-01	5.898851e-01	
297	2.970000e-01	2.970000e-01	5.875107e-01	
298	2.980000e-01	2.980000e-01	5.851076e-01	
299	2.990000e-01	2.990000e-01	5.826773e-01	
300	3.000000e-01	3.000000e-01	5.802212e-01	
301	3.010000e-01	3.010000e-01	5.777407e-01	
302	3.020000e-01	3.020000e-01	5.752374e-01	
303	3.030000e-01	3.030000e-01	5.727125e-01	
304	3.040000e-01	3.040000e-01	5.701674e-01	
305	3.050000e-01	3.050000e-01	5.676034e-01	
306	3.060000e-01	3.060000e-01	5.650217e-01	
307	3.070000e-01	3.070000e-01	5.624235e-01	
308	3.080000e-01	3.080000e-01	5.598098e-01	
309	3.090000e-01	3.090000e-01	5.571816e-01	
310	3.100000e-01	3.100000e-01	5.545399e-01	
311	3.110000e-01	3.110000e-01	5.518856e-01	
312	3.120000e-01	3.120000e-01	5.492194e-01	
313	3.130000e-01	3.130000e-01	5.465422e-01	
314	3.140000e-01	3.140000e-01	5.438547e-01	
315	3.150000e-01	3.150000e-01	5.411574e-01	
316	3.160000e-01	3.160000e-01	5.384509e-01	
317	3.170000e-01	3.170000e-01	5.357360e-01	
318	3.180000e-01	3.180000e-01	5.330129e-01	
319	3.190000e-01	3.190000e-01	5.302823e-01	
320	3.200000e-01	3.200000e-01	5.275445e-01	
321	3.210000e-01	3.210000e-01	5.248000e-01	
322	3.220000e-01	3.220000e-01	5.220491e-01	
323	3.230000e-01	3.230000e-01	5.192922e-01	
324	3.240000e-01	3.240000e-01	5.165295e-01	
325	3.250000e-01	3.250000e-01	5.137615e-01	
326	3.260000e-01	3.260000e-01	5.109884e-01	
327	3.270000e-01	3.270000e-01	5.082104e-01	
328	3.280000e-01	3.280000e-01	5.054277e-01	
329	3.290000e-01	3.290000e-01	5.026407e-01	
330	3.300000e-01	3.300000e-01	4.998496e-01	
331	3.310000e-01	3.310000e-01	4.970544e-01	
332	3.320000e-01	3.320000e-01	4.942555e-01	
333	3.330000e-01	3.330000e-01	4.914529e-01	
334	3.340000e-01	3.340000e-01	4.886469e-01	
335	3.350000e-01	3.350000e-01	4.858377e-01	
336	3.360000e-01	3.360000e-01	4.830253e-01	
337	3.370000e-01	3.370000e-01	4.802099e-01	
338	3.380000e-01	3.380000e-01	4.773916e-01	
339	3.390000e-01	3.390000e-01	4.745707e-01	
340	3.400000e-01	3.400000e-01	4.717471e-01	
341	3.410000e-01	3.410000e-01	4.689210e-01	
342	3.420000e-01	3.420000e-01	4.660926e-01	
343	3.430000e-01	3.430000e-01	4.632619e-01	
344	3.440000e-01	3.440000e-01	4.604290e-01	

Index   v-sweep         v(in)           v(out)          
--------------------------------------------------------------------------------
345	3.450000e-01	3.450000e-01	4.575941e-01	
346	3.460000e-01	3.460000e-01	4.547572e-01	
347	3.470000e-01	3.470000e-01	4.519183e-01	
348	3.480000e-01	3.480000e-01	4.490777e-01	
349	3.490000e-01	3.490000e-01	4.462354e-01	
350	3.500000e-01	3.500000e-01	4.433914e-01	
351	3.510000e-01	3.510000e-01	4.405458e-01	
352	3.520000e-01	3.520000e-01	4.376988e-01	
353	3.530000e-01	3.530000e-01	4.348503e-01	
354	3.540000e-01	3.540000e-01	4.320005e-01	
355	3.550000e-01	3.550000e-01	4.291494e-01	
356	3.560000e-01	3.560000e-01	4.262970e-01	
357	3.570000e-01	3.570000e-01	4.234435e-01	
358	3.580000e-01	3.580000e-01	4.205889e-01	
359	3.590000e-01	3.590000e-01	4.177332e-01	
360	3.600000e-01	3.600000e-01	4.148766e-01	
361	3.610000e-01	3.610000e-01	4.120190e-01	
362	3.620000e-01	3.620000e-01	4.091605e-01	
363	3.630000e-01	3.630000e-01	4.063012e-01	
364	3.640000e-01	3.640000e-01	4.034411e-01	
365	3.650000e-01	3.650000e-01	4.005803e-01	
366	3.660000e-01	3.660000e-01	3.977188e-01	
367	3.670000e-01	3.670000e-01	3.948566e-01	
368	3.680000e-01	3.680000e-01	3.919938e-01	
369	3.690000e-01	3.690000e-01	3.891305e-01	
370	3.700000e-01	3.700000e-01	3.862667e-01	
371	3.710000e-01	3.710000e-01	3.834023e-01	
372	3.720000e-01	3.720000e-01	3.805376e-01	
373	3.730000e-01	3.730000e-01	3.776724e-01	
374	3.740000e-01	3.740000e-01	3.748069e-01	
375	3.750000e-01	3.750000e-01	3.719410e-01	
376	3.760000e-01	3.760000e-01	3.690748e-01	
377	3.770000e-01	3.770000e-01	3.662084e-01	
378	3.780000e-01	3.780000e-01	3.633418e-01	
379	3.790000e-01	3.790000e-01	3.604749e-01	
380	3.800000e-01	3.800000e-01	3.576080e-01	
381	3.810000e-01	3.810000e-01	3.547408e-01	
382	3.820000e-01	3.820000e-01	3.518736e-01	
383	3.830000e-01	3.830000e-01	3.490063e-01	
384	3.840000e-01	3.840000e-01	3.461390e-01	
385	3.850000e-01	3.850000e-01	3.432717e-01	
386	3.860000e-01	3.860000e-01	3.404044e-01	
387	3.870000e-01	3.870000e-01	3.375372e-01	
388	3.880000e-01	3.880000e-01	3.346700e-01	
389	3.890000e-01	3.890000e-01	3.318030e-01	
390	3.900000e-01	3.900000e-01	3.289361e-01	
391	3.910000e-01	3.910000e-01	3.260693e-01	
392	3.920000e-01	3.920000e-01	3.232028e-01	
393	3.930000e-01	3.930000e-01	3.203365e-01	
394	3.940000e-01	3.940000e-01	3.174704e-01	
395	3.950000e-01	3.950000e-01	3.146047e-01	
396	3.960000e-01	3.960000e-01	3.117392e-01	
397	3.970000e-01	3.970000e-01	3.088741e-01	
398	3.980000e-01	3.980000e-01	3.060094e-01	
399	3.990000e-01	3.990000e-01	3.031451e-01	
400	4.000000e-01	4.000000e-01	3.002812e-01	
401	4.010000e-01	4.010000e-01	2.974178e-01	
402	4.020000e-01	4.020000e-01	2.945550e-01	

Index   v-sweep         v(in)           v(out)          
--------------------------------------------------------------------------------
403	4.030000e-01	4.030000e-01	2.916926e-01	
404	4.040000e-01	4.040000e-01	2.888309e-01	
405	4.050000e-01	4.050000e-01	2.859697e-01	
406	4.060000e-01	4.060000e-01	2.831093e-01	
407	4.070000e-01	4.070000e-01	2.802495e-01	
408	4.080000e-01	4.080000e-01	2.773904e-01	
409	4.090000e-01	4.090000e-01	2.745322e-01	
410	4.100000e-01	4.100000e-01	2.716747e-01	
411	4.110000e-01	4.110000e-01	2.688182e-01	
412	4.120000e-01	4.120000e-01	2.659625e-01	
413	4.130000e-01	4.130000e-01	2.631079e-01	
414	4.140000e-01	4.140000e-01	2.602542e-01	
415	4.150000e-01	4.150000e-01	2.574017e-01	
416	4.160000e-01	4.160000e-01	2.545503e-01	
417	4.170000e-01	4.170000e-01	2.517001e-01	
418	4.180000e-01	4.180000e-01	2.488511e-01	
419	4.190000e-01	4.190000e-01	2.460036e-01	
420	4.200000e-01	4.200000e-01	2.431574e-01	
421	4.210000e-01	4.210000e-01	2.403127e-01	
422	4.220000e-01	4.220000e-01	2.374696e-01	
423	4.230000e-01	4.230000e-01	2.346282e-01	
424	4.240000e-01	4.240000e-01	2.317885e-01	
425	4.250000e-01	4.250000e-01	2.289507e-01	
426	4.260000e-01	4.260000e-01	2.261149e-01	
427	4.270000e-01	4.270000e-01	2.232811e-01	
428	4.280000e-01	4.280000e-01	2.204495e-01	
429	4.290000e-01	4.290000e-01	2.176202e-01	
430	4.300000e-01	4.300000e-01	2.147934e-01	
431	4.310000e-01	4.310000e-01	2.119692e-01	
432	4.320000e-01	4.320000e-01	2.091477e-01	
433	4.330000e-01	4.330000e-01	2.063291e-01	
434	4.340000e-01	4.340000e-01	2.035136e-01	
435	4.350000e-01	4.350000e-01	2.007013e-01	
436	4.360000e-01	4.360000e-01	1.978925e-01	
437	4.370000e-01	4.370000e-01	1.950874e-01	
438	4.380000e-01	4.380000e-01	1.922863e-01	
439	4.390000e-01	4.390000e-01	1.894892e-01	
440	4.400000e-01	4.400000e-01	1.866966e-01	
441	4.410000e-01	4.410000e-01	1.839087e-01	
442	4.420000e-01	4.420000e-01	1.811259e-01	
443	4.430000e-01	4.430000e-01	1.783483e-01	
444	4.440000e-01	4.440000e-01	1.755765e-01	
445	4.450000e-01	4.450000e-01	1.728108e-01	
446	4.460000e-01	4.460000e-01	1.700516e-01	
447	4.470000e-01	4.470000e-01	1.672993e-01	
448	4.480000e-01	4.480000e-01	1.645545e-01	
449	4.490000e-01	4.490000e-01	1.618177e-01	
450	4.500000e-01	4.500000e-01	1.590894e-01	
451	4.510000e-01	4.510000e-01	1.563703e-01	
452	4.520000e-01	4.520000e-01	1.536610e-01	
453	4.530000e-01	4.530000e-01	1.509623e-01	
454	4.540000e-01	4.540000e-01	1.482749e-01	
455	4.550000e-01	4.550000e-01	1.455997e-01	
456	4.560000e-01	4.560000e-01	1.429375e-01	
457	4.570000e-01	4.570000e-01	1.402894e-01	
458	4.580000e-01	4.580000e-01	1.376564e-01	
459	4.590000e-01	4.590000e-01	1.350395e-01	
460	4.600000e-01	4.600000e-01	1.324400e-01	

Index   v-sweep         v(in)           v(out)          
--------------------------------------------------------------------------------
461	4.610000e-01	4.610000e-01	1.298592e-01	
462	4.620000e-01	4.620000e-01	1.272983e-01	
463	4.630000e-01	4.630000e-01	1.247588e-01	
464	4.640000e-01	4.640000e-01	1.222420e-01	
465	4.650000e-01	4.650000e-01	1.197496e-01	
466	4.660000e-01	4.660000e-01	1.172831e-01	
467	4.670000e-01	4.670000e-01	1.148441e-01	
468	4.680000e-01	4.680000e-01	1.124341e-01	
469	4.690000e-01	4.690000e-01	1.100548e-01	
470	4.700000e-01	4.700000e-01	1.077077e-01	
471	4.710000e-01	4.710000e-01	1.053945e-01	
472	4.720000e-01	4.720000e-01	1.031165e-01	
473	4.730000e-01	4.730000e-01	1.008751e-01	
474	4.740000e-01	4.740000e-01	9.867153e-02	
475	4.750000e-01	4.750000e-01	9.650700e-02	
476	4.760000e-01	4.760000e-01	9.438244e-02	
477	4.770000e-01	4.770000e-01	9.229867e-02	
478	4.780000e-01	4.780000e-01	9.025632e-02	
479	4.790000e-01	4.790000e-01	8.825588e-02	
480	4.800000e-01	4.800000e-01	8.629761e-02	
481	4.810000e-01	4.810000e-01	8.438166e-02	
482	4.820000e-01	4.820000e-01	8.250797e-02	
483	4.830000e-01	4.830000e-01	8.067635e-02	
484	4.840000e-01	4.840000e-01	7.888647e-02	
485	4.850000e-01	4.850000e-01	7.713787e-02	
486	4.860000e-01	4.860000e-01	7.542999e-02	
487	4.870000e-01	4.870000e-01	7.376219e-02	
488	4.880000e-01	4.880000e-01	7.213372e-02	
489	4.890000e-01	4.890000e-01	7.054382e-02	
490	4.900000e-01	4.900000e-01	6.899163e-02	
491	4.910000e-01	4.910000e-01	6.747630e-02	
492	4.920000e-01	4.920000e-01	6.599694e-02	
493	4.930000e-01	4.930000e-01	6.455263e-02	
494	4.940000e-01	4.940000e-01	6.314246e-02	
495	4.950000e-01	4.950000e-01	6.176554e-02	
496	4.960000e-01	4.960000e-01	6.042096e-02	
497	4.970000e-01	4.970000e-01	5.910783e-02	
498	4.980000e-01	4.980000e-01	5.782528e-02	
499	4.990000e-01	4.990000e-01	5.657245e-02	
500	5.000000e-01	5.000000e-01	5.534851e-02	
501	5.010000e-01	5.010000e-01	5.415266e-02	
502	5.020000e-01	5.020000e-01	5.298410e-02	
503	5.030000e-01	5.030000e-01	5.184207e-02	
504	5.040000e-01	5.040000e-01	5.072584e-02	
505	5.050000e-01	5.050000e-01	4.963469e-02	
506	5.060000e-01	5.060000e-01	4.856792e-02	
507	5.070000e-01	5.070000e-01	4.752489e-02	
508	5.080000e-01	5.080000e-01	4.650493e-02	
509	5.090000e-01	5.090000e-01	4.550745e-02	
510	5.100000e-01	5.100000e-01	4.453183e-02	
511	5.110000e-01	5.110000e-01	4.357750e-02	
512	5.120000e-01	5.120000e-01	4.264391e-02	
513	5.130000e-01	5.130000e-01	4.173053e-02	
514	5.140000e-01	5.140000e-01	4.083683e-02	
515	5.150000e-01	5.150000e-01	3.996233e-02	
516	5.160000e-01	5.160000e-01	3.910653e-02	
517	5.170000e-01	5.170000e-01	3.826899e-02	
518	5.180000e-01	5.180000e-01	3.744925e-02	

Index   v-sweep         v(in)           v(out)          
--------------------------------------------------------------------------------
519	5.190000e-01	5.190000e-01	3.664688e-02	
520	5.200000e-01	5.200000e-01	3.586146e-02	
521	5.210000e-01	5.210000e-01	3.509259e-02	
522	5.220000e-01	5.220000e-01	3.433989e-02	
523	5.230000e-01	5.230000e-01	3.360297e-02	
524	5.240000e-01	5.240000e-01	3.288147e-02	
525	5.250000e-01	5.250000e-01	3.217505e-02	
526	5.260000e-01	5.260000e-01	3.148335e-02	
527	5.270000e-01	5.270000e-01	3.080605e-02	
528	5.280000e-01	5.280000e-01	3.014282e-02	
529	5.290000e-01	5.290000e-01	2.949336e-02	
530	5.300000e-01	5.300000e-01	2.885736e-02	
531	5.310000e-01	5.310000e-01	2.823454e-02	
532	5.320000e-01	5.320000e-01	2.762460e-02	
533	5.330000e-01	5.330000e-01	2.702727e-02	
534	5.340000e-01	5.340000e-01	2.644228e-02	
535	5.350000e-01	5.350000e-01	2.586937e-02	
536	5.360000e-01	5.360000e-01	2.530829e-02	
537	5.370000e-01	5.370000e-01	2.475879e-02	
538	5.380000e-01	5.380000e-01	2.422062e-02	
539	5.390000e-01	5.390000e-01	2.369356e-02	
540	5.400000e-01	5.400000e-01	2.317738e-02	
541	5.410000e-01	5.410000e-01	2.267184e-02	
542	5.420000e-01	5.420000e-01	2.217675e-02	
543	5.430000e-01	5.430000e-01	2.169187e-02	
544	5.440000e-01	5.440000e-01	2.121702e-02	
545	5.450000e-01	5.450000e-01	2.075198e-02	
546	5.460000e-01	5.460000e-01	2.029655e-02	
547	5.470000e-01	5.470000e-01	1.985056e-02	
548	5.480000e-01	5.480000e-01	1.941380e-02	
549	5.490000e-01	5.490000e-01	1.898609e-02	
550	5.500000e-01	5.500000e-01	1.856726e-02	
551	5.510000e-01	5.510000e-01	1.815713e-02	
552	5.520000e-01	5.520000e-01	1.775552e-02	
553	5.530000e-01	5.530000e-01	1.736228e-02	
554	5.540000e-01	5.540000e-01	1.697722e-02	
555	5.550000e-01	5.550000e-01	1.660020e-02	
556	5.560000e-01	5.560000e-01	1.623106e-02	
557	5.570000e-01	5.570000e-01	1.586963e-02	
558	5.580000e-01	5.580000e-01	1.551578e-02	
559	5.590000e-01	5.590000e-01	1.516934e-02	
560	5.600000e-01	5.600000e-01	1.483018e-02	
561	5.610000e-01	5.610000e-01	1.449816e-02	
562	5.620000e-01	5.620000e-01	1.417312e-02	
563	5.630000e-01	5.630000e-01	1.385495e-02	
564	5.640000e-01	5.640000e-01	1.354349e-02	
565	5.650000e-01	5.650000e-01	1.323863e-02	
566	5.660000e-01	5.660000e-01	1.294022e-02	
567	5.670000e-01	5.670000e-01	1.264815e-02	
568	5.680000e-01	5.680000e-01	1.236229e-02	
569	5.690000e-01	5.690000e-01	1.208252e-02	
570	5.700000e-01	5.700000e-01	1.180871e-02	
571	5.710000e-01	5.710000e-01	1.154076e-02	
572	5.720000e-01	5.720000e-01	1.127854e-02	
573	5.730000e-01	5.730000e-01	1.102194e-02	
574	5.740000e-01	5.740000e-01	1.077086e-02	
575	5.750000e-01	5.750000e-01	1.052517e-02	
576	5.760000e-01	5.760000e-01	1.028478e-02	

Index   v-sweep         v(in)           v(out)          
--------------------------------------------------------------------------------
577	5.770000e-01	5.770000e-01	1.004958e-02	
578	5.780000e-01	5.780000e-01	9.819465e-03	
579	5.790000e-01	5.790000e-01	9.594335e-03	
580	5.800000e-01	5.800000e-01	9.374089e-03	
581	5.810000e-01	5.810000e-01	9.158631e-03	
582	5.820000e-01	5.820000e-01	8.947864e-03	
583	5.830000e-01	5.830000e-01	8.741694e-03	
584	5.840000e-01	5.840000e-01	8.540029e-03	
585	5.850000e-01	5.850000e-01	8.342777e-03	
586	5.860000e-01	5.860000e-01	8.149849e-03	
587	5.870000e-01	5.870000e-01	7.961158e-03	
588	5.880000e-01	5.880000e-01	7.776617e-03	
589	5.890000e-01	5.890000e-01	7.596143e-03	
590	5.900000e-01	5.900000e-01	7.419652e-03	
591	5.910000e-01	5.910000e-01	7.247062e-03	
592	5.920000e-01	5.920000e-01	7.078294e-03	
593	5.930000e-01	5.930000e-01	6.913269e-03	
594	5.940000e-01	5.940000e-01	6.751910e-03	
595	5.950000e-01	5.950000e-01	6.594142e-03	
596	5.960000e-01	5.960000e-01	6.439889e-03	
597	5.970000e-01	5.970000e-01	6.289080e-03	
598	5.980000e-01	5.980000e-01	6.141643e-03	
599	5.990000e-01	5.990000e-01	5.997506e-03	
600	6.000000e-01	6.000000e-01	5.856602e-03	
601	6.010000e-01	6.010000e-01	5.718863e-03	
602	6.020000e-01	6.020000e-01	5.584223e-03	
603	6.030000e-01	6.030000e-01	5.452615e-03	
604	6.040000e-01	6.040000e-01	5.323976e-03	
605	6.050000e-01	6.050000e-01	5.198245e-03	
606	6.060000e-01	6.060000e-01	5.075358e-03	
607	6.070000e-01	6.070000e-01	4.955255e-03	
608	6.080000e-01	6.080000e-01	4.837878e-03	
609	6.090000e-01	6.090000e-01	4.723168e-03	
610	6.100000e-01	6.100000e-01	4.611069e-03	
611	6.110000e-01	6.110000e-01	4.501523e-03	
612	6.120000e-01	6.120000e-01	4.394477e-03	
613	6.130000e-01	6.130000e-01	4.289877e-03	
614	6.140000e-01	6.140000e-01	4.187671e-03	
615	6.150000e-01	6.150000e-01	4.087805e-03	
616	6.160000e-01	6.160000e-01	3.990230e-03	
617	6.170000e-01	6.170000e-01	3.894896e-03	
618	6.180000e-01	6.180000e-01	3.801755e-03	
619	6.190000e-01	6.190000e-01	3.710758e-03	
620	6.200000e-01	6.200000e-01	3.621859e-03	
621	6.210000e-01	6.210000e-01	3.535012e-03	
622	6.220000e-01	6.220000e-01	3.450172e-03	
623	6.230000e-01	6.230000e-01	3.367296e-03	
624	6.240000e-01	6.240000e-01	3.286338e-03	
625	6.250000e-01	6.250000e-01	3.207259e-03	
626	6.260000e-01	6.260000e-01	3.130016e-03	
627	6.270000e-01	6.270000e-01	3.054568e-03	
628	6.280000e-01	6.280000e-01	2.980876e-03	
629	6.290000e-01	6.290000e-01	2.908901e-03	
630	6.300000e-01	6.300000e-01	2.838605e-03	
631	6.310000e-01	6.310000e-01	2.769950e-03	
632	6.320000e-01	6.320000e-01	2.702900e-03	
633	6.330000e-01	6.330000e-01	2.637419e-03	
634	6.340000e-01	6.340000e-01	2.573472e-03	

Index   v-sweep         v(in)           v(out)          
--------------------------------------------------------------------------------
635	6.350000e-01	6.350000e-01	2.511024e-03	
636	6.360000e-01	6.360000e-01	2.450043e-03	
637	6.370000e-01	6.370000e-01	2.390494e-03	
638	6.380000e-01	6.380000e-01	2.332346e-03	
639	6.390000e-01	6.390000e-01	2.275567e-03	
640	6.400000e-01	6.400000e-01	2.220126e-03	
641	6.410000e-01	6.410000e-01	2.165994e-03	
642	6.420000e-01	6.420000e-01	2.113140e-03	
643	6.430000e-01	6.430000e-01	2.061535e-03	
644	6.440000e-01	6.440000e-01	2.011152e-03	
645	6.450000e-01	6.450000e-01	1.961961e-03	
646	6.460000e-01	6.460000e-01	1.913937e-03	
647	6.470000e-01	6.470000e-01	1.867053e-03	
648	6.480000e-01	6.480000e-01	1.821282e-03	
649	6.490000e-01	6.490000e-01	1.776600e-03	
650	6.500000e-01	6.500000e-01	1.732981e-03	
651	6.510000e-01	6.510000e-01	1.690400e-03	
652	6.520000e-01	6.520000e-01	1.648835e-03	
653	6.530000e-01	6.530000e-01	1.608262e-03	
654	6.540000e-01	6.540000e-01	1.568658e-03	
655	6.550000e-01	6.550000e-01	1.530000e-03	
656	6.560000e-01	6.560000e-01	1.492268e-03	
657	6.570000e-01	6.570000e-01	1.455439e-03	
658	6.580000e-01	6.580000e-01	1.419492e-03	
659	6.590000e-01	6.590000e-01	1.384409e-03	
660	6.600000e-01	6.600000e-01	1.350167e-03	
661	6.610000e-01	6.610000e-01	1.316748e-03	
662	6.620000e-01	6.620000e-01	1.284134e-03	
663	6.630000e-01	6.630000e-01	1.252304e-03	
664	6.640000e-01	6.640000e-01	1.221241e-03	
665	6.650000e-01	6.650000e-01	1.190927e-03	
666	6.660000e-01	6.660000e-01	1.161345e-03	
667	6.670000e-01	6.670000e-01	1.132477e-03	
668	6.680000e-01	6.680000e-01	1.104308e-03	
669	6.690000e-01	6.690000e-01	1.076819e-03	
670	6.700000e-01	6.700000e-01	1.049997e-03	
671	6.710000e-01	6.710000e-01	1.023824e-03	
672	6.720000e-01	6.720000e-01	9.982865e-04	
673	6.730000e-01	6.730000e-01	9.733686e-04	
674	6.740000e-01	6.740000e-01	9.490562e-04	
675	6.750000e-01	6.750000e-01	9.253349e-04	
676	6.760000e-01	6.760000e-01	9.021909e-04	
677	6.770000e-01	6.770000e-01	8.796105e-04	
678	6.780000e-01	6.780000e-01	8.575804e-04	
679	6.790000e-01	6.790000e-01	8.360878e-04	
680	6.800000e-01	6.800000e-01	8.151199e-04	
681	6.810000e-01	6.810000e-01	7.946642e-04	
682	6.820000e-01	6.820000e-01	7.747088e-04	
683	6.830000e-01	6.830000e-01	7.552417e-04	
684	6.840000e-01	6.840000e-01	7.362513e-04	
685	6.850000e-01	6.850000e-01	7.177264e-04	
686	6.860000e-01	6.860000e-01	6.996560e-04	
687	6.870000e-01	6.870000e-01	6.820291e-04	
688	6.880000e-01	6.880000e-01	6.648353e-04	
689	6.890000e-01	6.890000e-01	6.480642e-04	
690	6.900000e-01	6.900000e-01	6.317058e-04	
691	6.910000e-01	6.910000e-01	6.157502e-04	
692	6.920000e-01	6.920000e-01	6.001879e-04	

Index   v-sweep         v(in)           v(out)          
--------------------------------------------------------------------------------
693	6.930000e-01	6.930000e-01	5.850093e-04	
694	6.940000e-01	6.940000e-01	5.702054e-04	
695	6.950000e-01	6.950000e-01	5.557672e-04	
696	6.960000e-01	6.960000e-01	5.416859e-04	
697	6.970000e-01	6.970000e-01	5.279530e-04	
698	6.980000e-01	6.980000e-01	5.145600e-04	
699	6.990000e-01	6.990000e-01	5.014989e-04	
700	7.000000e-01	7.000000e-01	4.887616e-04	
Note: No ".plot", ".print", or ".fourier" lines; no simulations run
